Circuit: * C:\Users\tydav\gitLocals\ECE3110\2024\lab02\figures\half-wave\half-wave.asc

.OP point found by inspection.

Date: Mon Sep 30 12:31:55 2024
Total elapsed time: 0.176 seconds.

tnom = 27
temp = 27
method = modified trap
totiter = 2092
traniter = 2092
tranpoints = 1047
accept = 1046
rejected = 1
matrix size = 4
fillins = 0
solver = Normal
Matrix Compiler1:       7 opcodes  0.1/[0.0]/0.1
Matrix Compiler2:      21 opcodes  0.1/[0.1]/0.1

