Circuit: * C:\Users\tydav\gitLocals\ECE3110\2024\lab02\figures\half-wave\half-wave.asc

.OP point found by inspection.

Date: Wed Oct 02 10:25:30 2024
Total elapsed time: 0.044 seconds.

tnom = 27
temp = 27
method = modified trap
totiter = 2092
traniter = 2092
tranpoints = 1047
accept = 1046
rejected = 1
matrix size = 4
fillins = 0
solver = Normal
Matrix Compiler1: 118 bytes object code size  0.1/0.0/[0.0]
Matrix Compiler2: 242 bytes object code size  0.0/0.0/[0.0]

