Circuit: * C:\Users\tydav\gitLocals\ECE3110\2024\lab02\figures\peak\peak.asc

.OP point found by inspection.

Date: Mon Sep 30 12:57:21 2024
Total elapsed time: 0.075 seconds.

tnom = 27
temp = 27
method = modified trap
totiter = 2214
traniter = 2214
tranpoints = 1066
accept = 1058
rejected = 8
matrix size = 4
fillins = 0
solver = Normal
Matrix Compiler1: 100 bytes object code size  0.0/0.0/[0.0]
Matrix Compiler2:      21 opcodes  0.0/[0.0]/0.0

