Circuit: * C:\Users\tydav\gitLocals\ECE3110\2024\lab02\figures\peak\peak.asc

.OP point found by inspection.

Date: Wed Oct 02 10:28:12 2024
Total elapsed time: 0.070 seconds.

tnom = 27
temp = 27
method = modified trap
totiter = 2242
traniter = 2242
tranpoints = 1066
accept = 1058
rejected = 8
matrix size = 4
fillins = 0
solver = Normal
Matrix Compiler1: 100 bytes object code size  0.1/0.0/[0.0]
Matrix Compiler2: 248 bytes object code size  0.1/0.1/[0.1]

