Circuit: * C:\Users\tydav\OneDrive - weber.edu\Documents\Random School Stuff\23-24 Schoolyear\Fall2023\ECE 3110\lab1\circuit1.asc

.OP point found by inspection.

Date: Wed Sep 20 14:41:34 2023
Total elapsed time: 0.101 seconds.

tnom = 27
temp = 27
method = modified trap
totiter = 2744
traniter = 2744
tranpoints = 1196
accept = 1129
rejected = 67
matrix size = 4
fillins = 0
solver = Normal
Matrix Compiler1: 100 bytes object code size  0.1/0.1/[0.1]
Matrix Compiler2: 248 bytes object code size  0.1/0.1/[0.1]

