Circuit: * C:\Users\tydav\gitLocals\ECE3110\2024\lab02\figures\precision\precision.asc

Direct Newton iteration for .op point succeeded.

Date: Mon Sep 30 13:17:12 2024
Total elapsed time: 0.079 seconds.

tnom = 27
temp = 27
method = modified trap
totiter = 3098
traniter = 3081
tranpoints = 1310
accept = 1210
rejected = 100
matrix size = 39
fillins = 31
solver = Normal
Matrix Compiler1: 3.13 KB object code size  0.8/0.5/[0.2]
Matrix Compiler2: 3.66 KB object code size  0.4/0.6/[0.3]

