Circuit: * C:\Users\tydav\gitLocals\ECE3110\2024\lab02\figures\precision\precision.asc

Direct Newton iteration for .op point succeeded.

Date: Wed Oct 02 12:54:25 2024
Total elapsed time: 0.054 seconds.

tnom = 27
temp = 27
method = modified trap
totiter = 2780
traniter = 2763
tranpoints = 1222
accept = 1161
rejected = 61
matrix size = 39
fillins = 31
solver = Normal
Matrix Compiler1: 3.13 KB object code size  0.6/0.3/[0.2]
Matrix Compiler2: off  [0.2]/0.3/0.3

